-------------------------------------------------------
          Amber 20 PMEMD                              2020
          -------------------------------------------------------

  [-O]verwriting output

File Assignments:

 Here is the input file:

100 ns NPT production using Langevin thermostat and MC barostat
&cntrl
 irest   = 1,
 ntx    = 5,
 ig    = -1,
 dt    = 0.002,
 nstlim  = 50000,
 nscm   = 500,
 ntr    = 0,
 ntb    = 2,
 ntp    = 1,
 barostat = 2,
 pres0   = 1.0,
 mcbarint = 100,
 comp   = 44.6,
 taup   = 1.0,
 ntt    = 3,
 temp0   = 298.0,
 gamma_ln = 1.0,
 ntf    = 2,
 ntc    = 2,
 cut    = 10.0,
 ntpr   = 500,
 ntxo   = 2,
 ntwr   = 50000,
 ioutfm  = 1,
 ntwx   = 5000,
 iwrap   = 1,
&end

Note: ig = -1. Setting random seed to   644720 based on wallclock time in
      microseconds.

--------------------------------------------------------------------------------
   1.  RESOURCE   USE:
--------------------------------------------------------------------------------

 getting box info from netcdf restart file
 NATOM  =   61840 NTYPES =      20 NBONH =   44555 MBONA  =   17315
 NTHETH =    8566 MTHETA =    5020 NPHIH =   16738 MPHIA  =   15674
 NHPARM =       0 NPARM  =       0 NNB   =  136319 NRES   =   14105
 NBONA  =   17315 NTHETA =    5020 NPHIA =   15674 NUMBND =      94
 NUMANG =     223 NPTRA  =     205 NATYP =      47 NPHB   =       0
 IFBOX  =       2 NMXRS  =      42 IFCAP =       0 NEXTRA =   13607
 NCOPY  =       0

     BOX TYPE: TRUNCATED OCTAHEDRON

--------------------------------------------------------------------------------
   2.  CONTROL  DATA  FOR  THE  RUN
--------------------------------------------------------------------------------

default_name

General flags:
     imin    =       0, nmropt  =       0

Nature and format of input:
     ntx     =       5, irest   =       1, ntrx    =       1

Nature and format of output:
     ntxo    =       2, ntpr    =     500, ntrx    =       1, ntwr    =   50000
     iwrap   =       1, ntwx    =    5000, ntwv    =       0, ntwe    =       0
     ioutfm  =       1, ntwprt  =       0, idecomp =       0, rbornstat=      0

Potential function:
     ntf     =       2, ntb     =       2, igb     =       0, nsnb    =      25
     ipol    =       0, gbsa    =       0, iesp    =       0
     dielc   =   1.00000, cut     =  10.00000, intdiel =   1.00000

Frozen or restrained atoms:
     ibelly  =       0, ntr     =       0

Molecular dynamics:
     nstlim  =     50000, nscm    =       500, nrespa  =         1
     t       =   0.00000, dt      =   0.00200, vlimit  =  -1.00000

Langevin dynamics temperature regulation:
     ig      =  644720
     temp0   = 298.00000, tempi   =   0.00000, gamma_ln=   1.00000

Pressure regulation:
     ntp     =       1
     pres0   =   1.00000, comp    =  44.60000, taup    =   1.00000
     Monte-Carlo Barostat:
     mcbarint  =     100

SHAKE:
     ntc     =       2, jfastw  =       0
     tol     =   0.00001

Extra-points options:
     frameon =       1, chngmask=       1

Ewald parameters:
     verbose =       0, ew_type =       0, nbflag  =       1, use_pme =       1
     vdwmeth =       1, eedmeth =       1, netfrc  =       1
     Box X =   84.906   Box Y =   84.906   Box Z =   84.906
     Alpha =  109.471   Beta  =  109.471   Gamma =  109.471
     NFFT1 =   96       NFFT2 =   96       NFFT3 =   96
     Cutoff=   10.000   Tol   =0.100E-04
     Ewald Coefficient =  0.27511
     Interpolation order =    4

--------------------------------------------------------------------------------
   3.  ATOMIC COORDINATES AND VELOCITIES
--------------------------------------------------------------------------------

default_name
 begin time read from input coords =918019.993 ps

 Number of triangulated 3-point waters found:    13607

     Sum of charges from parm topology file =   0.00007849
     Forcing neutrality...

--------------------------------------------------------------------------------
   4.  RESULTS
 NSTEP =      500   TIME(PS) =  918020.993  TEMP(K) =   297.27  PRESS =     0.0
 Etot   =   -170735.4184  EKtot   =     29579.0742  EPtot      =   -200314.4926
 BOND   =      1428.0196  ANGLE   =      3898.2267  DIHED      =      2291.1891
 UB     =         0.0000  IMP     =         0.0000  CMAP       =       359.8253
 1-4 NB =      1444.1915  1-4 EEL =     18839.3762  VDWAALS    =     34315.9504
 EELEC  =   -262891.2714  EHBOND  =         0.0000  RESTRAINT  =         0.0000
 EKCMT  =         0.0000  VIRIAL  =         0.0000  VOLUME     =    471203.5794
                                                    Density    =         1.0512
 ------------------------------------------------------------------------------

      A V E R A G E S   O V E R     100 S T E P S

 NSTEP =    50000   TIME(PS) =  918119.993  TEMP(K) =   297.81  PRESS =     0.0
 Etot   =   -170743.4033  EKtot   =     29632.6620  EPtot      =   -200376.0653
 BOND   =      1378.7708  ANGLE   =      3877.0367  DIHED      =      2277.4935
 UB     =         0.0000  IMP     =         0.0000  CMAP       =       369.0985
 1-4 NB =      1436.2258  1-4 EEL =     18847.2406  VDWAALS    =     34464.5322
 EELEC  =   -263026.4633  EHBOND  =         0.0000  RESTRAINT  =         0.0000
 EKCMT  =         0.0000  VIRIAL  =         0.0000  VOLUME     =    471850.1506
                                                    Density    =         1.0498
 ------------------------------------------------------------------------------

      R M S  F L U C T U A T I O N S

 NSTEP =    50000   TIME(PS) =  918119.993  TEMP(K) =     1.08  PRESS =     0.0
 Etot   =       219.7293  EKtot   =       107.2989  EPtot      =       172.8370
 BOND   =        28.9886  ANGLE   =        47.0889  DIHED      =        24.3944
 UB     =         0.0000  IMP     =         0.0000  CMAP       =         9.8722
 1-4 NB =        14.5875  1-4 EEL =        42.8682  VDWAALS    =       221.8649
 EELEC  =       309.9314  EHBOND  =         0.0000  RESTRAINT  =         0.0000
 EKCMT  =         0.0000  VIRIAL  =         0.0000  VOLUME     =       648.5217
                                                    Density    =         0.0014
 ------------------------------------------------------------------------------
