-------------------------------------------------------
          Amber 20 PMEMD                              2020
          -------------------------------------------------------

  [-O]verwriting output

File Assignments:

 Here is the input file:

100 ns NPT production using Langevin thermostat and MC barostat
&cntrl
 irest   = 1,
 ntx    = 5,
 ig    = -1,
 dt    = 0.002,
 nstlim  = 50000,
 nscm   = 500,
 ntr    = 0,
 ntb    = 2,
 ntp    = 1,
 barostat = 2,
 pres0   = 1.0,
 mcbarint = 100,
 comp   = 44.6,
 taup   = 1.0,
 ntt    = 3,
 temp0   = 298.0,
 gamma_ln = 1.0,
 ntf    = 2,
 ntc    = 2,
 cut    = 10.0,
 ntpr   = 500,
 ntxo   = 2,
 ntwr   = 50000,
 ioutfm  = 1,
 ntwx   = 5000,
 iwrap   = 1,
&end

Note: ig = -1. Setting random seed to   818864 based on wallclock time in
      microseconds.

--------------------------------------------------------------------------------
   1.  RESOURCE   USE:
--------------------------------------------------------------------------------

 getting box info from netcdf restart file
 NATOM  =   61840 NTYPES =      20 NBONH =   44555 MBONA  =   17315
 NTHETH =    8566 MTHETA =    5020 NPHIH =   16738 MPHIA  =   15674
 NHPARM =       0 NPARM  =       0 NNB   =  136319 NRES   =   14105
 NBONA  =   17315 NTHETA =    5020 NPHIA =   15674 NUMBND =      94
 NUMANG =     223 NPTRA  =     205 NATYP =      47 NPHB   =       0
 IFBOX  =       2 NMXRS  =      42 IFCAP =       0 NEXTRA =   13607
 NCOPY  =       0

     BOX TYPE: TRUNCATED OCTAHEDRON

--------------------------------------------------------------------------------
   2.  CONTROL  DATA  FOR  THE  RUN
--------------------------------------------------------------------------------

default_name

General flags:
     imin    =       0, nmropt  =       0

Nature and format of input:
     ntx     =       5, irest   =       1, ntrx    =       1

Nature and format of output:
     ntxo    =       2, ntpr    =     500, ntrx    =       1, ntwr    =   50000
     iwrap   =       1, ntwx    =    5000, ntwv    =       0, ntwe    =       0
     ioutfm  =       1, ntwprt  =       0, idecomp =       0, rbornstat=      0

Potential function:
     ntf     =       2, ntb     =       2, igb     =       0, nsnb    =      25
     ipol    =       0, gbsa    =       0, iesp    =       0
     dielc   =   1.00000, cut     =  10.00000, intdiel =   1.00000

Frozen or restrained atoms:
     ibelly  =       0, ntr     =       0

Molecular dynamics:
     nstlim  =     50000, nscm    =       500, nrespa  =         1
     t       =   0.00000, dt      =   0.00200, vlimit  =  -1.00000

Langevin dynamics temperature regulation:
     ig      =  818864
     temp0   = 298.00000, tempi   =   0.00000, gamma_ln=   1.00000

Pressure regulation:
     ntp     =       1
     pres0   =   1.00000, comp    =  44.60000, taup    =   1.00000
     Monte-Carlo Barostat:
     mcbarint  =     100

SHAKE:
     ntc     =       2, jfastw  =       0
     tol     =   0.00001

Extra-points options:
     frameon =       1, chngmask=       1

Ewald parameters:
     verbose =       0, ew_type =       0, nbflag  =       1, use_pme =       1
     vdwmeth =       1, eedmeth =       1, netfrc  =       1
     Box X =   84.936   Box Y =   84.936   Box Z =   84.936
     Alpha =  109.471   Beta  =  109.471   Gamma =  109.471
     NFFT1 =   96       NFFT2 =   96       NFFT3 =   96
     Cutoff=   10.000   Tol   =0.100E-04
     Ewald Coefficient =  0.27511
     Interpolation order =    4

--------------------------------------------------------------------------------
   3.  ATOMIC COORDINATES AND VELOCITIES
--------------------------------------------------------------------------------

default_name
 begin time read from input coords =918419.993 ps

 Number of triangulated 3-point waters found:    13607

     Sum of charges from parm topology file =   0.00007849
     Forcing neutrality...

--------------------------------------------------------------------------------
   4.  RESULTS
 NSTEP =      500   TIME(PS) =  918420.993  TEMP(K) =   296.32  PRESS =     0.0
 Etot   =   -171155.9479  EKtot   =     29484.6934  EPtot      =   -200640.6412
 BOND   =      1365.4073  ANGLE   =      3788.3245  DIHED      =      2209.6570
 UB     =         0.0000  IMP     =         0.0000  CMAP       =       375.6200
 1-4 NB =      1438.3987  1-4 EEL =     18839.5622  VDWAALS    =     34793.5279
 EELEC  =   -263451.1388  EHBOND  =         0.0000  RESTRAINT  =         0.0000
 EKCMT  =         0.0000  VIRIAL  =         0.0000  VOLUME     =    471685.0227
                                                    Density    =         1.0502
 ------------------------------------------------------------------------------

      A V E R A G E S   O V E R     100 S T E P S

 NSTEP =    50000   TIME(PS) =  918519.993  TEMP(K) =   298.02  PRESS =     0.0
 Etot   =   -170712.5964  EKtot   =     29654.0826  EPtot      =   -200366.6790
 BOND   =      1382.9246  ANGLE   =      3860.2323  DIHED      =      2227.4921
 UB     =         0.0000  IMP     =         0.0000  CMAP       =       369.6926
 1-4 NB =      1431.6285  1-4 EEL =     18790.4419  VDWAALS    =     34527.7890
 EELEC  =   -262956.8800  EHBOND  =         0.0000  RESTRAINT  =         0.0000
 EKCMT  =         0.0000  VIRIAL  =         0.0000  VOLUME     =    471430.4481
                                                    Density    =         1.0507
 ------------------------------------------------------------------------------

      R M S  F L U C T U A T I O N S

 NSTEP =    50000   TIME(PS) =  918519.993  TEMP(K) =     1.39  PRESS =     0.0
 Etot   =       258.9390  EKtot   =       138.0517  EPtot      =       195.4338
 BOND   =        30.4207  ANGLE   =        43.7651  DIHED      =        24.0728
 UB     =         0.0000  IMP     =         0.0000  CMAP       =         9.5370
 1-4 NB =        15.2640  1-4 EEL =        44.8283  VDWAALS    =       264.6517
 EELEC  =       366.6418  EHBOND  =         0.0000  RESTRAINT  =         0.0000
 EKCMT  =         0.0000  VIRIAL  =         0.0000  VOLUME     =       758.9318
                                                    Density    =         0.0017
 ------------------------------------------------------------------------------
